/*--------------------------------*- C++ -*----------------------------------*\
  =========                 |
  \\      /  F ield         | OpenFOAM: The Open Source CFD Toolbox
   \\    /   O peration     | Website:  https://openfoam.org
    \\  /    A nd           | Version:  6
     \\/     M anipulation  |
\*---------------------------------------------------------------------------*/
FoamFile
{
    version     2.0;
    format      ascii;
    class       dictionary;
    location    "system";
    object      fvSolution;
}
// * * * * * * * * * * * * * * * * * * * * * * * * * * * * * * * * * * * * * //

solvers
{
    "alpha.water.*"
    {
        interfaceMethod "isoAdvector";
        isoFaceTol      1e-8;
        surfCellTol     1e-7;
        snapTol         1e-12;
        nAlphaBounds    3;
        clip            true;

        nAlphaCorr      2;
        nAlphaSubCycles 1;
        cAlpha          1;

        MULESCorr       yes;
        nLimiterIter    3;

        solver          smoothSolver;
        smoother        symGaussSeidel;
        tolerance       1e-9;
        relTol          0;
    }

    "pcorr.*"
    {
        solver          PCG;
        preconditioner  DIC;
        tolerance       1e-10;
        relTol          0;
    }

    "(p_rgh|pd)"
    {
        solver          PCG;
        preconditioner  DIC;
        tolerance       1e-10;
        relTol          0.05;
    }

    "(p_rghFinal|pdFinal)"
    {
        $p_rgh;
        tolerance       1e-10;
        relTol          0;
    }

 pc
    {
        solver          GAMG;
        tolerance       1e-08;
        relTol          1e-06;
        smoother        DICGaussSeidel;
        nPreSweeps      0;
        nPostSweeps     2;
        cacheAgglomeration true;
        nCellsInCoarsestLevel 10;
        agglomerator    faceAreaPair;
        mergeLevels     1;
		maxIter			25;
    }

    pcFinal
    {
        solver          PCG;
        preconditioner
        {
            preconditioner  GAMG;
            tolerance       1e-10;
            relTol          0;
            nVcycles        2;
            smoother        DICGaussSeidel;
            nPreSweeps      0;
            nPostSweeps     2;
            nFinestSweeps   2;
            cacheAgglomeration false;
            nCellsInCoarsestLevel 10;
            agglomerator    faceAreaPair;
            mergeLevels     1;
        }
        tolerance       1e-08;
        relTol          0;
        maxIter         25;
    }


    U
    {
        solver          PBiCG;
        preconditioner  DILU;
        tolerance       1e-06;
        relTol          0;
    }

    alpha1
    {
        solver          PBiCG;
        preconditioner  DILU;
        tolerance       1e-06;
        relTol          0;
    }

}


PIMPLE
{
    momentumPredictor no;
    nCorrectors     3;
    nOuterCorrectors    1;
    nNonOrthogonalCorrectors 0;
    nAlphaCorr      1;
    nAlphaSubCycles 1;
    cAlpha          1;
    pRefPoint (0.006 0.0 0.0);
    pRefValue       0;
}

// ************************************************************************* //
